Version 4
SHEET 1 1052 680
WIRE 448 48 96 48
WIRE 192 80 192 0
WIRE 96 96 96 48
WIRE 160 96 96 96
WIRE 336 112 224 112
WIRE 432 112 416 112
WIRE 448 112 448 48
WIRE 448 112 432 112
WIRE 496 112 448 112
WIRE 160 128 64 128
WIRE 432 128 432 112
WIRE 496 128 496 112
WIRE 432 208 432 192
WIRE 496 208 432 208
WIRE 496 256 496 208
FLAG 112 0 0
FLAG 176 144 0
FLAG 496 256 0
FLAG 64 208 0
SYMBOL voltage 208 0 R90
WINDOW 0 -32 56 VBottom 2
WINDOW 3 32 56 VTop 2
WINDOW 123 0 0 Left 2
WINDOW 39 0 0 Left 2
SYMATTR InstName V1
SYMATTR Value 12
SYMBOL res 432 96 R90
WINDOW 0 0 56 VBottom 2
WINDOW 3 32 56 VTop 2
SYMATTR InstName R1
SYMATTR Value 33
SYMBOL current 496 128 R0
WINDOW 123 0 0 Left 2
WINDOW 39 24 108 Left 2
SYMATTR InstName I1
SYMATTR Value PULSE(100u 100m 10m 10m 1m 100m 1s)
SYMATTR SpiceLine load
SYMBOL voltage 64 112 R0
WINDOW 123 0 0 Left 2
WINDOW 39 0 0 Left 2
SYMATTR InstName V2
SYMATTR Value 3.7
SYMBOL cap 416 128 R0
SYMATTR InstName C1
SYMATTR Value 250µ
SYMBOL Opamps\\LT1206 192 48 R0
SYMATTR InstName U1
TEXT 160 272 Left 2 !.tran 2
