Version 4
SHEET 1 1172 680
WIRE 384 -112 -288 -112
WIRE 1056 -112 464 -112
WIRE 352 16 352 0
WIRE 384 16 352 16
WIRE 496 16 496 0
WIRE 496 16 464 16
WIRE 576 16 496 16
WIRE 672 16 576 16
WIRE 1056 16 1056 -112
WIRE 1056 16 928 16
WIRE 1168 16 1056 16
WIRE -80 32 -352 32
WIRE 80 32 -16 32
WIRE 352 32 352 16
WIRE 352 32 80 32
WIRE -352 48 -352 32
WIRE 80 48 80 32
WIRE 496 48 496 16
WIRE 352 64 352 32
WIRE 80 128 80 112
WIRE 128 128 80 128
WIRE 224 128 192 128
WIRE 352 128 224 128
WIRE 480 128 352 128
WIRE 496 128 480 128
WIRE -352 144 -352 128
WIRE -288 144 -288 -112
WIRE -288 144 -352 144
WIRE -208 144 -288 144
WIRE -80 144 -128 144
WIRE 80 144 80 128
WIRE 80 144 -16 144
WIRE 480 176 480 128
WIRE 800 176 800 112
WIRE 800 176 480 176
WIRE 1056 176 1056 80
WIRE 1056 176 800 176
WIRE 224 240 224 128
WIRE 576 256 576 16
WIRE 672 256 576 256
WIRE 480 512 480 176
WIRE 800 512 800 352
WIRE 800 512 480 512
WIRE 1040 512 1040 320
WIRE 1040 512 800 512
FLAG 224 240 0
SYMBOL cap -16 16 R90
WINDOW 0 0 32 VBottom 2
WINDOW 3 32 32 VTop 2
SYMATTR InstName C1
SYMATTR Value 1
SYMBOL cap -16 128 R90
WINDOW 0 0 32 VBottom 2
WINDOW 3 32 32 VTop 2
SYMATTR InstName C2
SYMATTR Value 1
SYMBOL res -112 128 R90
WINDOW 0 0 56 VBottom 2
WINDOW 3 32 56 VTop 2
SYMATTR InstName R1
SYMATTR Value 10
SYMBOL cap 336 64 R0
SYMATTR InstName C3
SYMATTR Value 1000
SYMBOL voltage -352 32 R0
WINDOW 123 0 0 Left 2
WINDOW 39 0 0 Left 2
SYMATTR InstName V1
SYMATTR Value SINE(0 110 60)
SYMBOL diode 192 112 R90
WINDOW 0 0 32 VBottom 2
WINDOW 3 32 32 VTop 2
SYMATTR InstName D1
SYMATTR Value 1N4148
SYMBOL zener 96 112 R180
WINDOW 0 24 64 Left 2
WINDOW 3 24 0 Left 2
SYMATTR InstName D2
SYMATTR Value BZX84C8V2L
SYMATTR Description Diode
SYMATTR Type diode
SYMBOL cap 1040 16 R0
SYMATTR InstName C4
SYMATTR Value 10
SYMBOL res 480 0 R90
WINDOW 0 0 56 VBottom 2
WINDOW 3 32 56 VTop 2
SYMATTR InstName R2
SYMATTR Value .01
SYMBOL PowerProducts\\LT1086-3.3 800 16 R0
SYMATTR InstName U1
SYMBOL res 480 -128 R90
WINDOW 0 0 56 VBottom 2
WINDOW 3 32 56 VTop 2
SYMATTR InstName R3
SYMATTR Value 100k
TEXT -320 224 Left 2 !.tran 0 6s 5s
